LTspice 24.0.9 for Windows
Circuit: * C:\Users\sahin\Documents\LTSpice\Circuit Theory Labs\Circuit Theory Lab-4.asc
Start Time: Fri Mar 22 00:07:22 2024
solver = Normal
Maximum thread count: 16
tnom = 27
temp = 27
method = modified trap
.OP point found by inspection.
Total elapsed time: 10.611 seconds.

